OPT_V10/Two_days_first_run/powerflow_results_t41.txt
Pandapower Network Debug Info
==================================================

BUS:
       vm_pu  va_degree      p_mw    q_mvar
0   0.993188   0.114599  0.000811  0.001108
1   0.988895   0.189225  0.001482  0.001685
2   0.984893   0.276112  0.001918  0.003128
3   0.989540   0.176237  0.002594  0.003606
4   0.989107   0.343228  0.002433  0.005896
5   0.991404   0.214204  0.003360  0.007168
6   0.989874   0.223277  0.000996  0.000955
7   0.997322   0.026324  0.001954  0.002144
8   0.997768   0.060713  0.001898  0.003401
9   0.999824   0.001416  0.009871  0.011788
10  0.999831   0.001335  0.012554  0.010023
11  0.999850   0.001214  0.009884  0.010145
12  0.999773   0.002205  0.009813  0.006120
13  0.999747   0.002464  0.009877  0.011703
14  0.999756   0.002352  0.013741  0.010438
15  0.999929   0.000678  0.000000  0.000000
16  0.999929   0.000683  0.000000  0.000000
17  0.999778   0.002235  0.000000  0.000000
18  0.999778   0.002247  0.000000  0.000000
19  1.000000   0.000000 -0.039254 -0.046577
20  1.000000   0.000006  0.000000  0.000000
21  1.000000   0.000000 -0.044246 -0.052945
22  1.000000   0.000007  0.000000  0.000000
--------------------------------------------------

LINE:
    p_from_mw  q_from_mvar   p_to_mw  q_to_mvar         pl_mw       ql_mvar  i_from_ka   i_to_ka      i_ka  vm_from_pu  va_from_degree  vm_to_pu  va_to_degree  loading_percent
0    0.039244     0.042577 -0.039241  -0.042574  3.279572e-06  2.557137e-06   0.002229  0.002229  0.002229    1.000000        0.000006  0.999929      0.000678         0.969014
1    0.044236     0.048945 -0.044224  -0.048936  1.170759e-05  9.128597e-06   0.002539  0.002539  0.002539    1.000000        0.000007  0.999778      0.002235         1.104050
2    0.032313     0.031959 -0.032310  -0.031957  2.857537e-06  2.228068e-06   0.001749  0.001749  0.001749    0.999929        0.000678  0.999850      0.001214         0.760606
3    0.009813     0.006120 -0.009813  -0.006120  4.626966e-08  3.607722e-08   0.000445  0.000445  0.000445    0.999778        0.002235  0.999773      0.002205         0.193572
4    0.023618     0.022142 -0.023617  -0.022142  5.733354e-07  4.470390e-07   0.001246  0.001246  0.001246    0.999778        0.002235  0.999756      0.002352         0.541892
5    0.006918     0.009616 -0.006853  -0.009565  6.564245e-05  5.118250e-05   0.017099  0.017099  0.017099    0.999929        0.000683  0.993188      0.114599         7.434482
6    0.004425     0.008176 -0.004358  -0.008124  6.708215e-05  5.230506e-05   0.013422  0.013422  0.013422    0.999778        0.002247  0.991404      0.214204         5.835463
7    0.001959     0.002148 -0.001954  -0.002144  5.713695e-06  4.455062e-06   0.004198  0.004198  0.004198    0.999778        0.002247  0.997322      0.026324         1.825000
8    0.004400     0.009351 -0.004381  -0.009337  1.837037e-05  1.432368e-05   0.014919  0.014919  0.014919    0.999778        0.002247  0.997768      0.060713         6.486720
9    0.009871     0.011789 -0.009871  -0.011788  8.178215e-08  6.376689e-08   0.000592  0.000592  0.000592    0.999831        0.001335  0.999824      0.001416         0.257349
10   0.022426     0.021811 -0.022425  -0.021811  4.787669e-07  3.733024e-07   0.001204  0.001204  0.001204    0.999850        0.001214  0.999831      0.001335         0.523598
11   0.009877     0.011703 -0.009877  -0.011703  1.147487e-07  8.947147e-08   0.000590  0.000590  0.000590    0.999756        0.002352  0.999747      0.002464         0.256336
12  -0.003413    -0.004823  0.003434   0.004840  2.111971e-05  1.646738e-05   0.008624  0.008624  0.008624    0.988895        0.189225  0.993188      0.114599         3.749491
13  -0.002594    -0.003606  0.002607   0.003617  1.345463e-05  1.049080e-05   0.006479  0.006479  0.006479    0.989540        0.176237  0.993188      0.114599         2.817097
14  -0.001918    -0.003128  0.001930   0.003138  1.255514e-05  9.789452e-06   0.005377  0.005377  0.005377    0.984893        0.276112  0.988895      0.189225         2.337952
15   0.002484     0.005936 -0.002433  -0.005896  5.060198e-05  3.945520e-05   0.009308  0.009308  0.009308    0.997768        0.060713  0.989107      0.343228         4.047007
16  -0.000996    -0.000955  0.000998   0.000956  1.691700e-06  1.319046e-06   0.002012  0.002012  0.002012    0.989874        0.223277  0.991404      0.214204         0.874779
--------------------------------------------------

TRAFO:
    p_hv_mw  q_hv_mvar   p_lv_mw  q_lv_mvar    pl_mw  ql_mvar   i_hv_ka   i_lv_ka  vm_hv_pu  va_hv_degree  vm_lv_pu  va_lv_degree  loading_percent
0  0.006928   0.010616 -0.006918  -0.009616  0.00001    0.001  0.000488  0.017099  0.999929      0.000678  0.999929      0.000683         0.126773
1  0.010794   0.020675 -0.010784  -0.019675  0.00001    0.001  0.000898  0.032392  0.999778      0.002235  0.999778      0.002247         0.233278
2  0.039254   0.046577 -0.039244  -0.042577  0.00001    0.004  0.000502  0.002229  1.000000      0.000000  1.000000      0.000006         0.152280
3  0.044246   0.052945 -0.044236  -0.048945  0.00001    0.004  0.000569  0.002539  1.000000      0.000000  1.000000      0.000007         0.172499
--------------------------------------------------
